examples/national_grid/ngt-2009_10sop.raw
0,   100.00, 30 / PSS(tm)E-30 RAW created by Pylon (201004220833).
 NGET-2009_10sop
 878 BUSES, 1264 BRANCHES
     1,'COWL      ',  400.0000,1,     0.000,  -200.000,   1,   1,     1.000,     0.000   1
     2,'KILS      ',  400.0000,1,     0.000,     0.000,   1,   1,     1.000,     0.000   1
     3,'CLEV      ',  400.0000,1,     0.000,     0.000,   1,   1,     1.000,     0.000   1
     4,'BRLE      ',  400.0000,1,     0.000,     0.000,   1,   1,     1.000,     0.000   1
     5,'CANT      ',  400.0000,1,     0.000,     0.000,   1,   1,     1.000,     0.000   1
     6,'HAMB      ',  400.0000,1,     0.000,     0.000,   1,   1,     1.000,     0.000   1
     7,'FALL      ',  400.0000,1,     0.000,     0.000,   1,   1,     1.000,     0.000   1
     8,'SHRE      ',  400.0000,1,     0.000,     0.000,   1,   1,     1.000,     0.000   1
     9,'NFLE      ',  400.0000,1,     0.000,     0.000,   1,   1,     1.000,     0.000   1
    10,'BARK      ',  400.0000,1,     0.000,     0.000,   1,   1,     1.000,     0.000   1
    11,'PENN      ',  400.0000,1,     0.000,     0.000,   1,   1,     1.000,     0.000   1
    12,'HAMH      ',  400.0000,1,     0.000,   450.000,   1,   1,     1.000,     0.000   1
    13,'MONF      ',  400.0000,1,     0.000,     0.000,   1,   1,     1.000,     0.000   1
    14,'IMPP      ',  400.0000,1,     0.000,     0.000,   1,   1,     1.000,     0.000   1
    15,'HINP      ',  400.0000,2,     0.000,     0.000,   1,   1,     1.000,     0.000   1
    16,'MAWO      ',  400.0000,2,     0.000,     0.000,   1,   1,     1.000,     0.000   1
    17,'HUMR      ',  400.0000,2,     0.000,     0.000,   1,   1,     1.000,     0.000   1
    18,'SPLN      ',  400.0000,2,     0.000,     0.000,   1,   1,     1.000,     0.000   1
    19,'HUER      ',  400.0000,2,     0.000,     0.000,   1,   1,     1.000,     0.000   1
    20,'KEMS      ',  400.0000,1,     0.000,     0.000,   1,   1,     1.000,     0.000   1
    21,'IRON      ',  400.0000,2,     0.000,   225.000,   1,   1,     1.000,     0.000   1
    22,'MOFF      ',  400.0000,1,     0.000,     0.000,   1,   1,     1.000,     0.000   1
    23,'GREN      ',  400.0000,1,     0.000,   900.000,   1,   1,     1.000,     0.000   1
    24,'MANN      ',  400.0000,1,     0.000,   300.000,   1,   1,     1.000,     0.000   1
    25,'HAWP      ',  400.0000,1,     0.000,     0.000,   1,   1,     1.000,     0.000   1
    26,'LACK      ',  400.0000,1,     0.000,     0.000,   1,   1,     1.000,     0.000   1
    27,'NEIL      ',  400.0000,1,     0.000,     0.000,   1,   1,     1.000,     0.000   1
    28,'BLYT      ',  400.0000,1,     0.000,     0.000,   1,   1,     1.000,     0.000   1
    29,'CULJ      ',  400.0000,1,     0.000,     0.000,   1,   1,     1.000,     0.000   1
    30,'FAUG      ',  400.0000,1,     0.000,     0.000,   1,   1,     1.000,     0.000   1
    31,'PADI      ',  400.0000,1,     0.000,     0.000,   1,   1,     1.000,     0.000   1
    32,'BOLN      ',  400.0000,1,     0.000,   225.000,   1,   1,     1.000,     0.000   1
    33,'EXET      ',  400.0000,1,     0.000,   360.000,   1,   1,     1.000,     0.000   1
    34,'TODP      ',  400.0000,1,     0.000,     0.000,   1,   1,     1.000,     0.000   1
    35,'ENDE      ',  400.0000,1,     0.000,   450.000,   1,   1,     1.000,     0.000   1
    36,'HIGM      ',  400.0000,1,     0.000,     0.000,   1,   1,     1.000,     0.000   1
    37,'NORW      ',  400.0000,1,     0.000,     0.000,   1,   1,     1.000,     0.000   1
    38,'EGGB      ',  400.0000,2,     0.000,     0.000,   1,   1,     1.000,     0.000   1
    39,'ABHA      ',  400.0000,1,     0.000,     0.000,   1,   1,     1.000,     0.000   1
    40,'NORT      ',  400.0000,1,     0.000,     0.000,   1,   1,     1.000,     0.000   1
    41,'OSBA      ',  400.0000,1,     0.000,     0.000,   1,   1,     1.000,     0.000   1
    42,'SPEN      ',  400.0000,1,     0.000,     0.000,   1,   1,     1.000,     0.000   1
    43,'QUER      ',  400.0000,1,     0.000,     0.000,   1,   1,     1.000,     0.000   1
    44,'RASS      ',  400.0000,1,     0.000,     0.000,   1,   1,     1.000,     0.000   1
    45,'HIRN      ',  400.0000,1,     0.000,     0.000,   1,   1,     1.000,     0.000   1
    46,'KILL      ',  400.0000,2,     0.000,     0.000,   1,   1,     1.000,     0.000   1
    47,'LITB      ',  400.0000,2,     0.000,     0.000,   1,   1,     1.000,     0.000   1
    48,'TREU      ',  400.0000,1,     0.000,     0.000,   1,   1,     1.000,     0.000   1
    49,'RATS      ',  400.0000,2,     0.000,     0.000,   1,   1,     1.000,     0.000   1
    50,'HAKB      ',  400.0000,1,     0.000,     0.000,   1,   1,     1.000,     0.000   1
    51,'DINO      ',  400.0000,2,     0.000,     0.000,   1,   1,     1.000,     0.000   1
    52,'HUTT      ',  400.0000,1,     0.000,     0.000,   1,   1,     1.000,     0.000   1
    53,'COTT      ',  400.0000,2,     0.000,     0.000,   1,   1,     1.000,     0.000   1
    54,'STAY      ',  400.0000,2,     0.000,   225.000,   1,   1,     1.000,     0.000   1
    55,'BURW      ',  400.0000,1,     0.000,     0.000,   1,   1,     1.000,     0.000   1
    56,'THTO      ',  400.0000,1,     0.000,     0.000,   1,   1,     1.000,     0.000   1
    57,'CHIC      ',  400.0000,1,     0.000,   225.000,   1,   1,     1.000,     0.000   1
    58,'SEAB      ',  400.0000,2,     0.000,     0.000,   1,   1,     1.000,     0.000   1
    59,'STAL      ',  400.0000,1,     0.000,     0.000,   1,   1,     1.000,     0.000   1
    60,'STAH      ',  400.0000,1,     0.000,     0.000,   1,   1,     1.000,     0.000   1
    61,'IVER      ',  400.0000,1,     0.000,     0.000,   1,   1,     1.000,     0.000   1
    62,'BRFO      ',  400.0000,1,     0.000,     0.000,   1,   1,     1.000,     0.000   1
    63,'BEDD      ',  400.0000,1,     0.000,     0.000,   1,   1,     1.000,     0.000   1
    64,'KINO      ',  400.0000,2,     0.000,     0.000,   1,   1,     1.000,     0.000   1
    65,'KEAD      ',  400.0000,2,     0.000,     0.000,   1,   1,     1.000,     0.000   1
    66,'TAUN      ',  400.0000,1,     0.000,     0.000,   1,   1,     1.000,     0.000   1
    67,'DEVM      ',  400.0000,1,     0.000,     0.000,   1,   1,     1.000,     0.000   1
    68,'DENN      ',  400.0000,1,     0.000,     0.000,   1,   1,     1.000,     0.000   1
    69,'NINF      ',  400.0000,1,     0.000,   150.000,   1,   1,     1.000,     0.000   1
    70,'WHAM      ',  400.0000,1,     0.000,   225.000,   1,   1,     1.000,     0.000   1
    71,'TILB      ',  400.0000,1,     0.000,     0.000,   1,   1,     1.000,     0.000   1
    72,'DAIN      ',  400.0000,1,     0.000,     0.000,   1,   1,     1.000,     0.000   1
    73,'SALH      ',  400.0000,1,     0.000,     0.000,   1,   1,     1.000,     0.000   1
    74,'FAWL      ',  400.0000,2,     0.000,     0.000,   1,   1,     1.000,     0.000   1
    75,'LOVE      ',  400.0000,1,     0.000,   175.000,   1,   1,     1.000,     0.000   1
    76,'BICF      ',  400.0000,1,     0.000,     0.000,   1,   1,     1.000,     0.000   1
    77,'PENT      ',  400.0000,1,     0.000,  -200.000,   1,   1,     1.000,     0.000   1
    78,'CRYR      ',  400.0000,1,     0.000,     0.000,   1,   1,     1.000,     0.000   1
    79,'WBUR      ',  400.0000,2,     0.000,  -185.000,   1,   1,     1.000,     0.000   1
    80,'WHSO      ',  400.0000,1,     0.000,     0.000,   1,   1,     1.000,     0.000   1
    81,'CAPE      ',  400.0000,1,     0.000,     0.000,   1,   1,     1.000,     0.000   1
    82,'ELST      ',  400.0000,1,     0.000,  -200.000,   1,   1,     1.000,     0.000   1
    83,'SIZE      ',  400.0000,2,     0.000,     0.000,   1,   1,     1.000,     0.000   1
    84,'SJOW      ',  400.0000,1,     0.000,  -200.000,   1,   1,     1.000,     0.000   1
    85,'MELK      ',  400.0000,1,     0.000,  -200.000,   1,   1,     1.000,     0.000   1
    86,'MEDW      ',  400.0000,2,     0.000,     0.000,   1,   1,     1.000,     0.000   1
    87,'SHBA      ',  400.0000,2,     0.000,     0.000,   1,   1,     1.000,     0.000   1
    88,'LEIB      ',  400.0000,1,     0.000,     0.000,   1,   1,     1.000,     0.000   1
    89,'CREB      ',  400.0000,1,     0.000,     0.000,   1,   1,     1.000,     0.000   1
    90,'SWAN      ',  400.0000,1,     0.000,     0.000,   1,   1,     1.000,     0.000   1
    91,'HARK      ',  400.0000,1,     0.000,   225.000,   1,   1,     1.000,     0.000   1
    92,'COSO      ',  400.0000,2,     0.000,     0.000,   1,   1,     1.000,     0.000   1
    93,'WYLF      ',  400.0000,2,     0.000,    36.000,   1,   1,     1.000,     0.000   1
    94,'DEES      ',  400.0000,2,     0.000,     0.000,   1,   1,     1.000,     0.000   1
    95,'GRNA      ',  400.0000,1,     0.000,     0.000,   1,   1,     1.000,     0.000   1
    96,'AXMI      ',  400.0000,1,     0.000,     0.000,   1,   1,     1.000,     0.000   1
    97,'NURS      ',  400.0000,1,     0.000,     0.000,   1,   1,     1.000,     0.000   1
    98,'FECK      ',  400.0000,1,     0.000,     0.000,   1,   1,     1.000,     0.000   1
    99,'EASO      ',  400.0000,1,     0.000,     0.000,   1,   1,     1.000,     0.000   1
   100,'LAND      ',  400.0000,1,     0.000,     0.000,   1,   1,     1.000,     0.000   1
   101,'DIDC      ',  400.0000,2,     0.000,     0.000,   1,   1,     1.000,     0.000   1
   102,'TORN      ',  400.0000,2,     0.000,  -300.000,   1,   1,     1.000,     0.000   1
   103,'GRAI      ',  400.0000,2,     0.000,     0.000,   1,   1,     1.000,     0.000   1
   104,'STWB      ',  400.0000,1,     0.000,     0.000,   1,   1,     1.000,     0.000   1
   105,'BONB      ',  400.0000,1,     0.000,     0.000,   1,   1,     1.000,     0.000   1
   106,'COCK      ',  400.0000,1,     0.000,     0.000,   1,   1,     1.000,     0.000   1
   107,'ECLA      ',  400.0000,1,     0.000,   600.000,   1,   1,     1.000,     0.000   1
   108,'RUGE      ',  400.0000,2,     0.000,     0.000,   1,   1,     1.000,     0.000   1
   109,'CARR      ',  400.0000,1,     0.000,     0.000,   1,   1,     1.000,     0.000   1
   110,'DUNG      ',  400.0000,2,     0.000,     0.000,   1,   1,     1.000,     0.000   1
   111,'DRAX      ',  400.0000,2,     0.000,     0.000,   1,   1,     1.000,     0.000   1
   112,'PEWO      ',  400.0000,1,     0.000,     0.000,   1,   1,     1.000,     0.000   1
   113,'DAMC      ',  400.0000,2,     0.000,     0.000,   1,   1,     1.000,     0.000   1
   114,'BRAW      ',  400.0000,1,     0.000,     0.000,   1,   1,     1.000,     0.000   1
   115,'STSB      ',  400.0000,1,     0.000,     0.000,   1,   1,     1.000,     0.000   1
   116,'DRAK      ',  400.0000,1,     0.000,   450.000,   1,   1,     1.000,     0.000   1
   117,'STHA      ',  400.0000,1,     0.000,     0.000,   1,   1,     1.000,     0.000   1
   118,'LEGA      ',  400.0000,1,     0.000,   225.000,   1,   1,     1.000,     0.000   1
   119,'HEYS      ',  400.0000,2,     0.000,     0.000,   1,   1,     1.000,     0.000   1
   120,'ALVE      ',  400.0000,1,     0.000,     0.000,   1,   1,     1.000,     0.000   1
   121,'TRAW      ',  400.0000,1,     0.000,     0.000,   1,   1,     1.000,     0.000   1
   122,'OLDB      ',  400.0000,1,     0.000,     0.000,   1,   1,     1.000,     0.000   1
   123,'WILE      ',  400.0000,1,     0.000,   600.000,   1,   1,     1.000,     0.000   1
   124,'ECCL      ',  400.0000,1,     0.000,     0.000,   1,   1,     1.000,     0.000   1
   125,'ERRO      ',  400.0000,1,     0.000,     0.000,   1,   1,     1.000,     0.000   1
   126,'MITY      ',  400.0000,1,     0.000,     0.000,   1,   1,     1.000,     0.000   1
   127,'HACK      ',  400.0000,1,     0.000,     0.000,   1,   1,     1.000,     0.000   1
   128,'WALH      ',  400.0000,1,     0.000,     0.000,   1,   1,     1.000,     0.000   1
   129,'PAFB      ',  400.0000,1,     0.000,     0.000,   1,   1,     1.000,     0.000   1
   130,'INKI      ',  400.0000,1,     0.000,     0.000,   1,   1,     1.000,     0.000   1
   131,'FERR      ',  400.0000,1,     0.000,     0.000,   1,   1,     1.000,     0.000   1
   132,'WALP      ',  400.0000,1,     0.000,    10.200,   1,   1,     1.000,     0.000   1
   133,'STEW      ',  400.0000,1,     0.000,     0.000,   1,   1,     1.000,     0.000   1
   134,'ELVA      ',  400.0000,1,     0.000,     0.000,   1,   1,     1.000,     0.000   1
   135,'SING      ',  400.0000,1,     0.000,     0.000,   1,   1,     1.000,     0.000   1
   136,'WALX      ',  400.0000,1,     0.000,     0.000,   1,   1,     1.000,     0.000   1
   137,'THOM      ',  400.0000,1,     0.000,  -200.000,   1,   1,     1.000,     0.000   1
   138,'NEEP      ',  400.0000,1,     0.000,     0.000,   1,   1,     1.000,     0.000   1
   139,'WTHU      ',  400.0000,1,     0.000,     0.000,   1,   1,     1.000,     0.000   1
   140,'CELL      ',  400.0000,1,     0.000,   750.000,   1,   1,     1.000,     0.000   1
   141,'COAL      ',  400.0000,1,     0.000,     0.000,   1,   1,     1.000,     0.000   1
   142,'ROCH      ',  400.0000,1,     0.000,     0.000,   1,   1,     1.000,     0.000   1
   143,'PELH      ',  400.0000,1,     0.000,   300.000,   1,   1,     1.000,     0.000   1
   144,'ROCK      ',  400.0000,2,     0.000,     0.000,   1,   1,     1.000,     0.000   1
   145,'MIWW      ',  400.0000,1,     0.000,     0.000,   1,   1,     1.000,     0.000   1
   146,'BOTW      ',  400.0000,1,     0.000,     0.000,   1,   1,     1.000,     0.000   1
   147,'WYMO      ',  400.0000,1,     0.000,   485.000,   1,   1,     1.000,     0.000   1
   148,'WWEY      ',  400.0000,1,     0.000,     0.000,   1,   1,     1.000,     0.000   1
   149,'GRIW      ',  400.0000,1,     0.000,     0.000,   1,   1,     1.000,     0.000   1
   150,'BEAU      ',  400.0000,1,     0.000,     0.000,   1,   1,     1.000,     0.000   1
   151,'SMEA      ',  400.0000,1,     0.000,     0.000,   1,   1,     1.000,     0.000   1
   152,'KEAR      ',  400.0000,1,     0.000,     0.000,   1,   1,     1.000,     0.000   1
   153,'MACC      ',  400.0000,1,     0.000,     0.000,   1,   1,     1.000,     0.000   1
   154,'BRIN      ',  400.0000,1,     0.000,     0.000,   1,   1,     1.000,     0.000   1
   155,'FLEE      ',  400.0000,1,     0.000,   225.000,   1,   1,     1.000,     0.000   1
   156,'SUND      ',  400.0000,1,     0.000,   570.000,   1,   1,     1.000,     0.000   1
   157,'SELL      ',  400.0000,1,     0.000,  1140.000,   1,   1,     1.000,     0.000   1
   158,'INDQ      ',  400.0000,2,     0.000,    25.000,   1,   1,     1.000,     0.000   1
   159,'CILF      ',  400.0000,1,     0.000,  -200.000,   1,   1,     1.000,     0.000   1
   160,'WEST      ',  400.0000,1,     0.000,     0.000,   1,   1,     1.000,     0.000   1
   161,'CITR      ',  400.0000,1,     0.000,  -200.000,   1,   1,     1.000,     0.000   1
   162,'FROD      ',  400.0000,1,     0.000,     0.000,   1,   1,     1.000,     0.000   1
   163,'THOR      ',  400.0000,1,     0.000,     0.000,   1,   1,     1.000,     0.000   1
   164,'PEMB      ',  400.0000,1,     0.000,     0.000,   1,   1,     1.000,     0.000   1
   165,'LITT      ',  400.0000,2,     0.000,     0.000,   1,   1,     1.000,     0.000   1
   166,'RYEH      ',  400.0000,2,     0.000,     0.000,   1,   1,     1.000,     0.000   1
   167,'WIYH      ',  400.0000,1,     0.000,     0.000,   1,   1,     1.000,     0.000   1
   168,'RAYL      ',  400.0000,1,     0.000,     0.000,   1,   1,     1.000,     0.000   1
   169,'EKIL      ',  275.0000,1,     0.000,     0.000,   1,   1,     1.000,     0.000   1
   170,'COWB      ',  275.0000,1,     0.000,     0.000,   1,   1,     1.000,     0.000   1
   171,'KILS      ',  275.0000,1,     0.000,     0.000,   1,   1,     1.000,     0.000   1
   172,'KILT      ',  275.0000,1,     0.000,     0.000,   1,   1,     1.000,     0.000   1
   173,'SKLG      ',  275.0000,1,     0.000,    50.000,   1,   1,     1.000,     0.000   1
   174,'POPP      ',  275.0000,1,     0.000,     0.000,   1,   1,     1.000,     0.000   1
   175,'KITW      ',  275.0000,1,     0.000,     0.000,   1,   1,     1.000,     0.000   1
   176,'EKIS      ',  275.0000,1,     0.000,     0.000,   1,   1,     1.000,     0.000   1
   177,'HARK      ',  275.0000,1,     0.000,   450.000,   1,   1,     1.000,     0.000   1
   178,'BARK      ',  275.0000,1,     0.000,     0.000,   1,   1,     1.000,     0.000   1
   179,'BESW      ',  275.0000,1,     0.000,   150.000,   1,   1,     1.000,     0.000   1
   180,'DOUN      ',  275.0000,1,     0.000,     0.000,   1,   1,     1.000,     0.000   1
   181,'WMEL      ',  275.0000,1,     0.000,     0.000,   1,   1,     1.000,     0.000   1
   182,'MONF      ',  275.0000,1,     0.000,   150.000,   1,   1,     1.000,     0.000   1
   183,'HINP      ',  275.0000,1,     0.000,     0.000,   1,   1,     1.000,     0.000   1
   184,'USKM      ',  275.0000,2,     0.000,    37.200,   1,   1,     1.000,     0.000   1
   185,'DAAS      ',  275.0000,1,     0.000,     0.000,   1,   1,     1.000,     0.000   1
   186,'TINP      ',  275.0000,1,     0.000,     0.000,   1,   1,     1.000,     0.000   1
   187,'ALDW      ',  275.0000,1,     0.000,     0.000,   1,   1,     1.000,     0.000   1
   188,'WIEN      ',  275.0000,1,     0.000,     0.000,   1,   1,     1.000,     0.000   1
   189,'PITS      ',  275.0000,1,     0.000,     0.000,   1,   1,     1.000,     0.000   1
   190,'BIRK      ',  275.0000,1,     0.000,     0.000,   1,   1,     1.000,     0.000   1
   191,'BUST      ',  275.0000,1,     0.000,     0.000,   1,   1,     1.000,     0.000   1
   192,'SSHI      ',  275.0000,1,     0.000,     0.000,   1,   1,     1.000,     0.000   1
   193,'PERS      ',  275.0000,1,     0.000,     0.000,   1,   1,     1.000,     0.000   1
   194,'BUSH      ',  275.0000,1,     0.000,   150.000,   1,   1,     1.000,     0.000   1
   195,'BUSB      ',  275.0000,1,     0.000,     0.000,   1,   1,     1.000,     0.000   1
   196,'IROA      ',  275.0000,1,     0.000,     0.000,   1,   1,     1.000,     0.000   1
   197,'WATS      ',  275.0000,1,     0.000,     0.000,   1,   1,     1.000,     0.000   1
   198,'WIBA      ',  275.0000,1,     0.000,     0.000,   1,   1,     1.000,     0.000   1
   199,'WIMB      ',  275.0000,1,     0.000,  -200.000,   1,   1,     1.000,     0.000   1
...
 0 / END OF BUS DATA, BEGIN LOAD DATA
     1,'1 ', 1, 1, 1,  1447.392,   422.156,     0.000,     0.000,     0.000,     0.000,   1
     4,'1 ', 1, 1, 1,   388.740,   153.640,     0.000,     0.000,     0.000,     0.000,   1
     9,'1 ', 1, 1, 1,   852.864,   248.752,     0.000,     0.000,     0.000,     0.000,   1
    12,'1 ', 1, 1, 1,   811.408,   276.490,     0.000,     0.000,     0.000,     0.000,   1
    14,'1 ', 1, 1, 1,   180.000,     0.000,     0.000,     0.000,     0.000,     0.000,   1
    20,'1 ', 1, 1, 1,    69.504,    20.272,     0.000,     0.000,     0.000,     0.000,   1
    23,'1 ', 1, 1, 1,  1583.526,   600.220,     0.000,     0.000,     0.000,     0.000,   1
    24,'1 ', 1, 1, 1,  1431.486,   290.676,     0.000,     0.000,     0.000,     0.000,   1
    29,'1 ', 1, 1, 1,     0.570,     0.187,     0.000,     0.000,     0.000,     0.000,   1
    31,'1 ', 1, 1, 1,   412.378,   149.673,     0.000,     0.000,     0.000,     0.000,   1
    32,'1 ', 1, 1, 1,  1853.760,   540.680,     0.000,     0.000,     0.000,     0.000,   1
    33,'1 ', 1, 1, 1,   623.000,     0.000,     0.000,     0.000,     0.000,     0.000,   1
    35,'1 ', 1, 1, 1,  1013.935,   333.264,     0.000,     0.000,     0.000,     0.000,   1
    37,'1 ', 1, 1, 1,  1312.992,   382.956,     0.000,     0.000,     0.000,     0.000,   1
    39,'1 ', 1, 1, 1,   495.500,     0.000,     0.000,     0.000,     0.000,     0.000,   1
    41,'1 ', 1, 1, 1,   539.980,   109.648,     0.000,     0.000,     0.000,     0.000,   1
    44,'1 ', 1, 1, 1,   439.119,   110.054,     0.000,     0.000,     0.000,     0.000,   1
    49,'1 ', 1, 1, 1,  1279.058,   464.236,     0.000,     0.000,     0.000,     0.000,   1
    52,'1 ', 1, 1, 1,   452.544,   131.992,     0.000,     0.000,     0.000,     0.000,   1
    54,'1 ', 1, 1, 1,   344.751,   136.254,     0.000,     0.000,     0.000,     0.000,   1
    55,'1 ', 1, 1, 1,   595.104,   173.572,     0.000,     0.000,     0.000,     0.000,   1
    57,'1 ', 1, 1, 1,   198.930,    65.385,     0.000,     0.000,     0.000,     0.000,   1
    58,'1 ', 1, 1, 1,   552.960,   161.280,     0.000,     0.000,     0.000,     0.000,   1
    60,'1 ', 1, 1, 1,   639.189,   252.624,     0.000,     0.000,     0.000,     0.000,   1
    62,'1 ', 1, 1, 1,  1519.104,   443.072,     0.000,     0.000,     0.000,     0.000,   1
    64,'1 ', 1, 1, 1,   447.360,   130.480,     0.000,     0.000,     0.000,     0.000,   1
    65,'1 ', 1, 1, 1,   592.850,   588.008,     0.000,     0.000,     0.000,     0.000,   1
    66,'1 ', 1, 1, 1,   253.440,    36.113,     0.000,     0.000,     0.000,     0.000,   1
    69,'1 ', 1, 1, 1,   898.176,   261.968,     0.000,     0.000,     0.000,     0.000,   1
    70,'1 ', 1, 1, 1,  1029.600,   300.300,     0.000,     0.000,     0.000,     0.000,   1
    74,'1 ', 1, 1, 1,   617.672,   333.520,     0.000,     0.000,     0.000,     0.000,   1
    75,'1 ', 1, 1, 1,  1291.776,   376.768,     0.000,     0.000,     0.000,     0.000,   1
    76,'1 ', 1, 1, 1,   362.400,   105.700,     0.000,     0.000,     0.000,     0.000,   1
    77,'1 ', 1, 1, 1,   334.620,    47.681,     0.000,     0.000,     0.000,     0.000,   1
    79,'1 ', 1, 1, 1,   508.535,   167.147,     0.000,     0.000,     0.000,     0.000,   1
    83,'1 ', 1, 1, 1,     7.120,     3.648,     0.000,     0.000,     0.000,     0.000,   1
    84,'1 ', 1, 1, 1,  1484.256,   432.908,     0.000,     0.000,     0.000,     0.000,   1
    85,'1 ', 1, 1, 1,   938.950,   285.350,     0.000,     0.000,     0.000,     0.000,   1
    88,'1 ', 1, 1, 1,    14.000,     0.000,     0.000,     0.000,     0.000,     0.000,   1
    89,'1 ', 1, 1, 1,   926.030,   277.594,     0.000,     0.000,     0.000,     0.000,   1
    93,'1 ', 1, 1, 1,   113.680,    23.084,     0.000,     0.000,     0.000,     0.000,   1
    94,'1 ', 1, 1, 1,   651.540,   216.471,     0.000,     0.000,     0.000,     0.000,   1
    96,'1 ', 1, 1, 1,   442.714,   120.486,     0.000,     0.000,     0.000,     0.000,   1
    97,'1 ', 1, 1, 1,   841.572,   210.918,     0.000,     0.000,     0.000,     0.000,   1
    99,'1 ', 1, 1, 1,   364.800,   106.400,     0.000,     0.000,     0.000,     0.000,   1
   100,'1 ', 1, 1, 1,   523.000,     0.000,     0.000,     0.000,     0.000,     0.000,   1
   103,'1 ', 1, 1, 1,   131.736,    71.104,     0.000,     0.000,     0.000,     0.000,   1
   107,'1 ', 1, 1, 1,   833.902,   363.386,     0.000,     0.000,     0.000,     0.000,   1
   108,'1 ', 1, 1, 1,   551.072,   176.896,     0.000,     0.000,     0.000,     0.000,   1
   111,'1 ', 1, 1, 1,   138.150,    69.240,     0.000,     0.000,     0.000,     0.000,   1
   112,'1 ', 1, 1, 1,   513.024,   149.632,     0.000,     0.000,     0.000,     0.000,   1
   115,'1 ', 1, 1, 1,   128.800,    54.869,     0.000,     0.000,     0.000,     0.000,   1
   118,'1 ', 1, 1, 1,   608.220,   240.384,     0.000,     0.000,     0.000,     0.000,   1
   119,'1 ', 1, 1, 1,  -282.384,   272.177,     0.000,     0.000,     0.000,     0.000,   1
   126,'1 ', 1, 1, 1,   685.887,   171.899,     0.000,     0.000,     0.000,     0.000,   1
   128,'1 ', 1, 1, 1,  1250.580,   411.046,     0.000,     0.000,     0.000,     0.000,   1
   129,'1 ', 1, 1, 1,    30.000,     0.000,     0.000,     0.000,     0.000,     0.000,   1
   132,'1 ', 1, 1, 1,  1676.506,   596.006,     0.000,     0.000,     0.000,     0.000,   1
   135,'1 ', 1, 1, 1,    58.410,     8.323,     0.000,     0.000,     0.000,     0.000,   1
   140,'1 ', 1, 1, 1,  1171.666,   561.219,     0.000,     0.000,     0.000,     0.000,   1
   146,'1 ', 1, 1, 1,   349.879,    87.688,     0.000,     0.000,     0.000,     0.000,   1
   147,'1 ', 1, 1, 1,  1042.912,   296.016,     0.000,     0.000,     0.000,     0.000,   1
   149,'1 ', 1, 1, 1,   312.550,   102.730,     0.000,     0.000,     0.000,     0.000,   1
   156,'1 ', 1, 1, 1,  1048.704,   305.872,     0.000,     0.000,     0.000,     0.000,   1
   157,'1 ', 1, 1, 1,    48.510,     6.912,     0.000,     0.000,     0.000,     0.000,   1
   158,'1 ', 1, 1, 1,   871.000,     0.000,     0.000,     0.000,     0.000,     0.000,   1
   161,'1 ', 1, 1, 1,  1793.664,   523.152,     0.000,     0.000,     0.000,     0.000,   1
   162,'1 ', 1, 1, 1,   772.800,   329.211,     0.000,     0.000,     0.000,     0.000,   1
   164,'1 ', 1, 1, 1,   374.965,   123.245,     0.000,     0.000,     0.000,     0.000,   1
   165,'1 ', 1, 1, 1,   403.936,   127.857,     0.000,     0.000,     0.000,     0.000,   1
   168,'1 ', 1, 1, 1,  1517.625,   498.819,     0.000,     0.000,     0.000,     0.000,   1
   169,'1 ', 1, 1, 1,   148.507,    37.219,     0.000,     0.000,     0.000,     0.000,   1
   171,'1 ', 1, 1, 1,    74.872,    15.203,     0.000,     0.000,     0.000,     0.000,   1
   172,'1 ', 1, 1, 1,   176.448,    51.464,     0.000,     0.000,     0.000,     0.000,   1
   173,'1 ', 1, 1, 1,  1233.600,   359.800,     0.000,     0.000,     0.000,     0.000,   1
   174,'1 ', 1, 1, 1,   108.940,    20.497,     0.000,     0.000,     0.000,     0.000,   1
   175,'1 ', 1, 1, 1,   833.952,   243.236,     0.000,     0.000,     0.000,     0.000,   1
   176,'1 ', 1, 1, 1,    73.920,    21.560,     0.000,     0.000,     0.000,     0.000,   1
   177,'1 ', 1, 1, 1,   213.360,    84.541,     0.000,     0.000,     0.000,     0.000,   1
   178,'1 ', 1, 1, 1,   937.550,   288.073,     0.000,     0.000,     0.000,     0.000,   1
   179,'1 ', 1, 1, 1,   769.501,   192.855,     0.000,     0.000,     0.000,     0.000,   1
   181,'1 ', 1, 1, 1,  1273.350,   178.919,     0.000,     0.000,     0.000,     0.000,   1
   184,'1 ', 1, 1, 1,   492.200,   209.676,     0.000,     0.000,     0.000,     0.000,   1
   186,'1 ', 1, 1, 1,    82.600,    84.269,     0.000,     0.000,     0.000,     0.000,   1
   187,'1 ', 1, 1, 1,   316.400,   230.780,     0.000,     0.000,     0.000,     0.000,   1
   188,'1 ', 1, 1, 1,   397.714,   144.351,     0.000,     0.000,     0.000,     0.000,   1
   189,'1 ', 1, 1, 1,   188.220,    98.356,     0.000,     0.000,     0.000,     0.000,   1
   190,'1 ', 1, 1, 1,   562.320,    80.126,     0.000,     0.000,     0.000,     0.000,   1
   191,'1 ', 1, 1, 1,   729.312,   212.716,     0.000,     0.000,     0.000,     0.000,   1
   192,'1 ', 1, 1, 1,    99.910,    25.040,     0.000,     0.000,     0.000,     0.000,   1
   194,'1 ', 1, 1, 1,   321.984,    93.912,     0.000,     0.000,     0.000,     0.000,   1
   196,'1 ', 1, 1, 1,  1040.372,   228.329,     0.000,     0.000,     0.000,     0.000,   1
   197,'1 ', 1, 1, 1,   408.288,   119.084,     0.000,     0.000,     0.000,     0.000,   1
   198,'1 ', 1, 1, 1,    64.240,    34.673,     0.000,     0.000,     0.000,     0.000,   1
   199,'1 ', 1, 1, 1,  1493.664,   435.652,     0.000,     0.000,     0.000,     0.000,   1
   200,'1 ', 1, 1, 1,   448.960,   191.256,     0.000,     0.000,     0.000,     0.000,   1
   201,'1 ', 1, 1, 1,   232.260,    47.162,     0.000,     0.000,     0.000,     0.000,   1
   202,'1 ', 1, 1, 1,   128.040,    32.090,     0.000,     0.000,     0.000,     0.000,   1
   203,'1 ', 1, 1, 1,   487.080,    69.405,     0.000,     0.000,     0.000,     0.000,   1
   205,'1 ', 1, 1, 1,  1457.030,   261.251,     0.000,     0.000,     0.000,     0.000,   1
   207,'1 ', 1, 1, 1,   212.058,    30.217,     0.000,     0.000,     0.000,     0.000,   1
   208,'1 ', 1, 1, 1,  1043.181,   412.292,     0.000,     0.000,     0.000,     0.000,   1
   212,'1 ', 1, 1, 1,   182.360,    45.704,     0.000,     0.000,     0.000,     0.000,   1
   213,'1 ', 1, 1, 1,   565.000,     0.000,     0.000,     0.000,     0.000,     0.000,   1
   214,'1 ', 1, 1, 1,   161.500,   100.089,     0.000,     0.000,     0.000,     0.000,   1
   215,'1 ', 1, 1, 1,  1025.830,   316.978,     0.000,     0.000,     0.000,     0.000,   1
   216,'1 ', 1, 1, 1,  1005.696,   293.328,     0.000,     0.000,     0.000,     0.000,   1
   217,'1 ', 1, 1, 1,   203.100,    38.805,     0.000,     0.000,     0.000,     0.000,   1
   219,'1 ', 1, 1, 1,   395.675,   130.052,     0.000,     0.000,     0.000,     0.000,   1
   221,'1 ', 1, 1, 1,   168.560,    34.228,     0.000,     0.000,     0.000,     0.000,   1
   222,'1 ', 1, 1, 1,   519.820,   188.669,     0.000,     0.000,     0.000,     0.000,   1
   223,'1 ', 1, 1, 1,   142.560,    20.314,     0.000,     0.000,     0.000,     0.000,   1
   224,'1 ', 1, 1, 1,  1089.365,   358.057,     0.000,     0.000,     0.000,     0.000,   1
   225,'1 ', 1, 1, 1,   168.658,    34.247,     0.000,     0.000,     0.000,     0.000,   1
   226,'1 ', 1, 1, 1,   166.250,    54.644,     0.000,     0.000,     0.000,     0.000,   1
   229,'1 ', 1, 1, 1,   511.260,   135.502,     0.000,     0.000,     0.000,     0.000,   1
   230,'1 ', 1, 1, 1,   796.368,   289.043,     0.000,     0.000,     0.000,     0.000,   1
   231,'1 ', 1, 1, 1,  1129.525,   362.729,     0.000,     0.000,     0.000,     0.000,   1
   234,'1 ', 1, 1, 1,    37.600,    19.854,     0.000,     0.000,     0.000,     0.000,   1
   235,'1 ', 1, 1, 1,   296.928,    86.604,     0.000,     0.000,     0.000,     0.000,   1
   240,'1 ', 1, 1, 1,  1051.218,   175.611,     0.000,     0.000,     0.000,     0.000,   1
   241,'1 ', 1, 1, 1,   724.896,   211.428,     0.000,     0.000,     0.000,     0.000,   1
   242,'1 ', 1, 1, 1,   485.336,   153.826,     0.000,     0.000,     0.000,     0.000,   1
   244,'1 ', 1, 1, 1,   302.330,    61.391,     0.000,     0.000,     0.000,     0.000,   1
   246,'1 ', 1, 1, 1,    12.800,     9.600,     0.000,     0.000,     0.000,     0.000,   1
   249,'1 ', 1, 1, 1,   145.040,    29.452,     0.000,     0.000,     0.000,     0.000,   1
   250,'1 ', 1, 1, 1,   135.360,    39.480,     0.000,     0.000,     0.000,     0.000,   1
   252,'1 ', 1, 1, 1,   175.448,    79.936,     0.000,     0.000,     0.000,     0.000,   1
   253,'1 ', 1, 1, 1,   483.840,   141.120,     0.000,     0.000,     0.000,     0.000,   1
   254,'1 ', 1, 1, 1,   152.224,   168.664,     0.000,     0.000,     0.000,     0.000,   1
   255,'1 ', 1, 1, 1,   645.408,   188.244,     0.000,     0.000,     0.000,     0.000,   1
   256,'1 ', 1, 1, 1,  1908.160,   541.380,     0.000,     0.000,     0.000,     0.000,   1
   257,'1 ', 1, 1, 1,   144.060,    29.253,     0.000,     0.000,     0.000,     0.000,   1
   258,'1 ', 1, 1, 1,   716.272,   366.957,     0.000,     0.000,     0.000,     0.000,   1
   259,'1 ', 1, 1, 1,   823.104,   240.072,     0.000,     0.000,     0.000,     0.000,   1
   260,'1 ', 1, 1, 1,   204.767,    51.319,     0.000,     0.000,     0.000,     0.000,   1
   261,'1 ', 1, 1, 1,   934.789,   234.280,     0.000,     0.000,     0.000,     0.000,   1
   262,'1 ', 1, 1, 1,   655.975,   215.609,     0.000,     0.000,     0.000,     0.000,   1
   264,'1 ', 1, 1, 1,   201.275,    50.444,     0.000,     0.000,     0.000,     0.000,   1
   269,'1 ', 1, 1, 1,   200.900,    40.794,     0.000,     0.000,     0.000,     0.000,   1
   271,'1 ', 1, 1, 1,   134.554,    27.322,     0.000,     0.000,     0.000,     0.000,   1
   272,'1 ', 1, 1, 1,   621.024,   181.132,     0.000,     0.000,     0.000,     0.000,   1
   273,'1 ', 1, 1, 1,   546.316,   182.365,     0.000,     0.000,     0.000,     0.000,   1
   275,'1 ', 1, 1, 1,   173.568,    50.624,     0.000,     0.000,     0.000,     0.000,   1
   276,'1 ', 1, 1, 1,    55.100,     6.000,     0.000,     0.000,     0.000,     0.000,   1
   278,'1 ', 1, 1, 1,   600.909,   340.551,     0.000,     0.000,     0.000,     0.000,   1
   279,'1 ', 1, 1, 1,   242.100,   117.254,     0.000,     0.000,     0.000,     0.000,   1
   280,'1 ', 1, 1, 1,   462.555,    67.980,     0.000,     0.000,     0.000,     0.000,   1
   281,'1 ', 1, 1, 1,   604.698,   151.552,     0.000,     0.000,     0.000,     0.000,   1
   283,'1 ', 1, 1, 1,  1112.402,   187.288,     0.000,     0.000,     0.000,     0.000,   1
   284,'1 ', 1, 1, 1,   190.610,    38.705,     0.000,     0.000,     0.000,     0.000,   1
   286,'1 ', 1, 1, 1,   132.258,    48.003,     0.000,     0.000,     0.000,     0.000,   1
   287,'1 ', 1, 1, 1,   218.442,    44.357,     0.000,     0.000,     0.000,     0.000,   1
   288,'1 ', 1, 1, 1,   160.426,    32.576,     0.000,     0.000,     0.000,     0.000,   1
   289,'1 ', 1, 1, 1,   116.342,    32.352,     0.000,     0.000,     0.000,     0.000,   1
   292,'1 ', 1, 1, 1,   189.696,    55.328,     0.000,     0.000,     0.000,     0.000,   1
   294,'1 ', 1, 1, 1,   506.445,   166.460,     0.000,     0.000,     0.000,     0.000,   1
   295,'1 ', 1, 1, 1,   718.160,   260.657,     0.000,     0.000,     0.000,     0.000,   1
   297,'1 ', 1, 1, 1,   351.360,   102.480,     0.000,     0.000,     0.000,     0.000,   1
   298,'1 ', 1, 1, 1,   361.778,    98.440,     0.000,     0.000,     0.000,     0.000,   1
   300,'1 ', 1, 1, 1,   375.155,   123.307,     0.000,     0.000,     0.000,     0.000,   1
   301,'1 ', 1, 1, 1,   363.678,    73.848,     0.000,     0.000,     0.000,     0.000,   1
   302,'1 ', 1, 1, 1,    34.000,     0.000,     0.000,     0.000,     0.000,     0.000,   1
   303,'1 ', 1, 1, 1,   296.736,    86.548,     0.000,     0.000,     0.000,     0.000,   1
   304,'1 ', 1, 1, 1,   114.072,    23.163,     0.000,     0.000,     0.000,     0.000,   1
   307,'1 ', 1, 1, 1,   165.780,     0.912,     0.000,     0.000,     0.000,     0.000,   1
   308,'1 ', 1, 1, 1,   194.291,    48.694,     0.000,     0.000,     0.000,     0.000,   1
   309,'1 ', 1, 1, 1,   664.000,     0.000,     0.000,     0.000,     0.000,     0.000,   1
   310,'1 ', 1, 1, 1,   597.934,   217.021,     0.000,     0.000,     0.000,     0.000,   1
   315,'1 ', 1, 1, 1,   241.560,    34.420,     0.000,     0.000,     0.000,     0.000,   1
   316,'1 ', 1, 1, 1,   242.016,    70.588,     0.000,     0.000,     0.000,     0.000,   1
   317,'1 ', 1, 1, 1,   192.000,    56.000,     0.000,     0.000,     0.000,     0.000,   1
   318,'1 ', 1, 1, 1,   526.322,   131.909,     0.000,     0.000,     0.000,     0.000,   1
   319,'1 ', 1, 1, 1,  1013.856,   295.708,     0.000,     0.000,     0.000,     0.000,   1
   320,'1 ', 1, 1, 1,  1125.240,   367.221,     0.000,     0.000,     0.000,     0.000,   1
   321,'1 ', 1, 1, 1,   962.628,   241.257,     0.000,     0.000,     0.000,     0.000,   1
   323,'1 ', 1, 1, 1,   454.080,   132.440,     0.000,     0.000,     0.000,     0.000,   1
   327,'1 ', 1, 1, 1,   174.720,    50.960,     0.000,     0.000,     0.000,     0.000,   1
   328,'1 ', 1, 1, 1,   272.175,    89.460,     0.000,     0.000,     0.000,     0.000,   1
   330,'1 ', 1, 1, 1,   158.697,    22.613,     0.000,     0.000,     0.000,     0.000,   1
   331,'1 ', 1, 1, 1,   620.256,   180.908,     0.000,     0.000,     0.000,     0.000,   1
   332,'1 ', 1, 1, 1,   573.800,   188.599,     0.000,     0.000,     0.000,     0.000,   1
   333,'1 ', 1, 1, 1,   547.416,   235.885,     0.000,     0.000,     0.000,     0.000,   1
   334,'1 ', 1, 1, 1,   144.746,    29.392,     0.000,     0.000,     0.000,     0.000,   1
   337,'1 ', 1, 1, 1,   753.620,   153.029,     0.000,     0.000,     0.000,     0.000,   1
   338,'1 ', 1, 1, 1,   422.448,   185.227,     0.000,     0.000,     0.000,     0.000,   1
   340,'1 ', 1, 1, 1,   522.766,   183.208,     0.000,     0.000,     0.000,     0.000,   1
   341,'1 ', 1, 1, 1,    87.072,    25.396,     0.000,     0.000,     0.000,     0.000,   1
   344,'1 ', 1, 1, 1,   781.536,   227.948,     0.000,     0.000,     0.000,     0.000,   1
   348,'1 ', 1, 1, 1,   173.264,    35.183,     0.000,     0.000,     0.000,     0.000,   1
   351,'1 ', 1, 1, 1,   182.854,    43.321,     0.000,     0.000,     0.000,     0.000,   1
   352,'1 ', 1, 1, 1,  1365.659,   406.063,     0.000,     0.000,     0.000,     0.000,   1
   353,'1 ', 1, 1, 1,   505.152,   147.336,     0.000,     0.000,     0.000,     0.000,   1
   354,'1 ', 1, 1, 1,   158.270,    52.021,     0.000,     0.000,     0.000,     0.000,   1
   356,'1 ', 1, 1, 1,   674.785,   221.791,     0.000,     0.000,     0.000,     0.000,   1
   358,'1 ', 1, 1, 1,   507.920,   154.125,     0.000,     0.000,     0.000,     0.000,   1
   360,'1 ', 1, 1, 1,   991.000,     0.000,     0.000,     0.000,     0.000,     0.000,   1
   362,'1 ', 1, 1, 1,   365.030,    97.908,     0.000,     0.000,     0.000,     0.000,   1
   370,'1 ', 1, 1, 1,    51.940,    10.547,     0.000,     0.000,     0.000,     0.000,   1
   372,'1 ', 1, 1, 1,     6.900,     2.939,     0.000,     0.000,     0.000,     0.000,   1
...
 0 / END OF LOAD DATA, BEGIN GENERATOR DATA
    19,'1 ',   100.000,     0.000,   273.800,  -145.900,   1.00000,     0,   100.000,   0.00000,   0.00000,   0.00000,   0.00000,0.00000,1,  100.0,   545.000,   136.250,   1,1.0000
    19,'1 ',   100.000,     0.000,   104.200,  -145.400,   1.00000,     0,   100.000,   0.00000,   0.00000,   0.00000,   0.00000,0.00000,1,  100.0,   545.000,   136.250,   1,1.0000
   102,'1 ',   100.000,     0.000,   296.900,  -272.500,   1.00000,     0,   100.000,   0.00000,   0.00000,   0.00000,   0.00000,0.00000,1,  100.0,   600.000,   150.000,   1,1.0000
   102,'1 ',   100.000,     0.000,   296.900,  -272.500,   1.00000,     0,   100.000,   0.00000,   0.00000,   0.00000,   0.00000,0.00000,1,  100.0,   600.000,   150.000,   1,1.0000
    94,'1 ',   100.000,     0.000,   157.200,  -174.400,   1.00000,     0,   100.000,   0.00000,   0.00000,   0.00000,   0.00000,0.00000,1,  100.0,   345.000,    86.250,   1,1.0000
    94,'1 ',   100.000,     0.000,   157.100,  -174.500,   1.00000,     0,   100.000,   0.00000,   0.00000,   0.00000,   0.00000,0.00000,1,  100.0,   345.000,    86.250,   1,1.0000
    94,'1 ',   100.000,     0.000,   156.800,  -174.700,   1.00000,     0,   100.000,   0.00000,   0.00000,   0.00000,   0.00000,0.00000,1,  100.0,   345.000,    86.250,   1,1.0000
    94,'1 ',   100.000,     0.000,   157.800,  -174.600,   1.00000,     0,   100.000,   0.00000,   0.00000,   0.00000,   0.00000,0.00000,1,  100.0,   345.000,    86.250,   1,1.0000
    92,'1 ',   100.000,     0.000,   130.900,  -135.400,   1.00000,     0,   100.000,   0.00000,   0.00000,   0.00000,   0.00000,0.00000,1,  100.0,   266.700,    66.675,   1,1.0000
    92,'1 ',   100.000,     0.000,   130.900,  -135.400,   1.00000,     0,   100.000,   0.00000,   0.00000,   0.00000,   0.00000,0.00000,1,  100.0,   266.700,    66.675,   1,1.0000
    92,'1 ',   100.000,     0.000,   155.600,  -122.400,   1.00000,     0,   100.000,   0.00000,   0.00000,   0.00000,   0.00000,0.00000,1,  100.0,   266.700,    66.675,   1,1.0000
    53,'1 ',   100.000,     0.000,   174.100,  -193.400,   1.00000,     0,   100.000,   0.00000,   0.00000,   0.00000,   0.00000,0.00000,1,  100.0,   495.000,   123.750,   1,1.0000
    53,'1 ',   100.000,     0.000,   154.900,  -190.200,   1.00000,     0,   100.000,   0.00000,   0.00000,   0.00000,   0.00000,0.00000,1,  100.0,   505.000,   126.250,   1,1.0000
    53,'1 ',   100.000,     0.000,   155.400,  -195.100,   1.00000,     0,   100.000,   0.00000,   0.00000,   0.00000,   0.00000,0.00000,1,  100.0,   505.000,   126.250,   1,1.0000
    53,'1 ',   100.000,     0.000,   175.700,  -192.100,   1.00000,     0,   100.000,   0.00000,   0.00000,   0.00000,   0.00000,0.00000,1,  100.0,   495.000,   123.750,   1,1.0000
    53,'1 ',   100.000,     0.000,   164.800,  -183.900,   1.00000,     0,   100.000,   0.00000,   0.00000,   0.00000,   0.00000,0.00000,1,  100.0,   395.000,    98.750,   1,1.0000
   113,'1 ',   100.000,     0.000,   121.500,  -129.300,   1.00000,     0,   100.000,   0.00000,   0.00000,   0.00000,   0.00000,0.00000,1,  100.0,   273.000,    68.250,   1,1.0000
   113,'1 ',   100.000,     0.000,   112.000,  -130.400,   1.00000,     0,   100.000,   0.00000,   0.00000,   0.00000,   0.00000,0.00000,1,  100.0,   273.000,    68.250,   1,1.0000
   113,'1 ',   100.000,     0.000,   118.700,  -121.700,   1.00000,     0,   100.000,   0.00000,   0.00000,   0.00000,   0.00000,0.00000,1,  100.0,   259.000,    64.750,   1,1.0000
    94,'1 ',   100.000,     0.000,    73.300,   -85.400,   1.00000,     0,   100.000,   0.00000,   0.00000,   0.00000,   0.00000,0.00000,1,  100.0,    89.500,    22.375,   1,1.0000
    94,'1 ',   100.000,     0.000,    73.300,   -85.400,   1.00000,     0,   100.000,   0.00000,   0.00000,   0.00000,   0.00000,0.00000,1,  100.0,   163.000,    40.750,   1,1.0000
    94,'1 ',   100.000,     0.000,   101.200,   -67.400,   1.00000,     0,   100.000,   0.00000,   0.00000,   0.00000,   0.00000,0.00000,1,  100.0,   148.000,    37.000,   1,1.0000
   101,'1 ',   100.000,     0.000,   183.600,  -267.000,   1.00000,     0,   100.000,   0.00000,   0.00000,   0.00000,   0.00000,0.00000,1,  100.0,   527.000,   131.750,   1,1.0000
   101,'1 ',   100.000,     0.000,   202.400,  -258.100,   1.00000,     0,   100.000,   0.00000,   0.00000,   0.00000,   0.00000,0.00000,1,  100.0,   527.000,   131.750,   1,1.0000
   101,'1 ',   100.000,     0.000,   187.100,  -264.000,   1.00000,     0,   100.000,   0.00000,   0.00000,   0.00000,   0.00000,0.00000,1,  100.0,   527.000,   131.750,   1,1.0000
   101,'1 ',   100.000,     0.000,   183.800,  -266.900,   1.00000,     0,   100.000,   0.00000,   0.00000,   0.00000,   0.00000,0.00000,1,  100.0,   527.000,   131.750,   1,1.0000
   101,'1 ',   100.000,     0.000,    10.000,   -10.000,   1.00000,     0,   100.000,   0.00000,   0.00000,   0.00000,   0.00000,0.00000,1,  100.0,    25.000,     6.250,   1,1.0000
   101,'1 ',   100.000,     0.000,    10.000,   -10.000,   1.00000,     0,   100.000,   0.00000,   0.00000,   0.00000,   0.00000,0.00000,1,  100.0,    25.000,     6.250,   1,1.0000
   101,'1 ',   100.000,     0.000,    10.000,   -10.000,   1.00000,     0,   100.000,   0.00000,   0.00000,   0.00000,   0.00000,0.00000,1,  100.0,    25.000,     6.250,   1,1.0000
   101,'1 ',   100.000,     0.000,    10.000,   -10.000,   1.00000,     0,   100.000,   0.00000,   0.00000,   0.00000,   0.00000,0.00000,1,  100.0,    25.000,     6.250,   1,1.0000
   101,'1 ',   100.000,     0.000,    60.900,   -89.900,   1.00000,     0,   100.000,   0.00000,   0.00000,   0.00000,   0.00000,0.00000,1,  100.0,   240.700,    60.175,   1,1.0000
   101,'1 ',   100.000,     0.000,    60.900,   -89.900,   1.00000,     0,   100.000,   0.00000,   0.00000,   0.00000,   0.00000,0.00000,1,  100.0,   240.700,    60.175,   1,1.0000
   101,'1 ',   100.000,     0.000,    76.100,  -111.900,   1.00000,     0,   100.000,   0.00000,   0.00000,   0.00000,   0.00000,0.00000,1,  100.0,   293.400,    73.350,   1,1.0000
   101,'1 ',   100.000,     0.000,    64.300,   -88.200,   1.00000,     0,   100.000,   0.00000,   0.00000,   0.00000,   0.00000,0.00000,1,  100.0,   237.700,    59.425,   1,1.0000
   101,'1 ',   100.000,     0.000,    72.500,   -84.000,   1.00000,     0,   100.000,   0.00000,   0.00000,   0.00000,   0.00000,0.00000,1,  100.0,   237.700,    59.425,   1,1.0000
   101,'1 ',   100.000,     0.000,   105.200,  -122.000,   1.00000,     0,   100.000,   0.00000,   0.00000,   0.00000,   0.00000,0.00000,1,  100.0,   299.800,    74.950,   1,1.0000
    51,'1 ',   100.000,     0.000,    90.100,  -139.900,   1.00000,     0,   100.000,   0.00000,   0.00000,   0.00000,   0.00000,0.00000,1,  100.0,   274.000,    68.500,   1,1.0000
    51,'1 ',   100.000,     0.000,    90.100,  -139.900,   1.00000,     0,   100.000,   0.00000,   0.00000,   0.00000,   0.00000,0.00000,1,  100.0,   274.000,    68.500,   1,1.0000
    51,'1 ',   100.000,     0.000,    90.100,  -139.900,   1.00000,     0,   100.000,   0.00000,   0.00000,   0.00000,   0.00000,0.00000,1,  100.0,   274.000,    68.500,   1,1.0000
    51,'1 ',   100.000,     0.000,    90.100,  -139.900,   1.00000,     0,   100.000,   0.00000,   0.00000,   0.00000,   0.00000,0.00000,1,  100.0,   274.000,    68.500,   1,1.0000
    51,'1 ',   100.000,     0.000,    90.100,  -139.900,   1.00000,     0,   100.000,   0.00000,   0.00000,   0.00000,   0.00000,0.00000,1,  100.0,   274.000,    68.500,   1,1.0000
    51,'1 ',   100.000,     0.000,    90.100,  -139.900,   1.00000,     0,   100.000,   0.00000,   0.00000,   0.00000,   0.00000,0.00000,1,  100.0,   274.000,    68.500,   1,1.0000
   111,'1 ',   100.000,     0.000,   268.200,  -289.000,   1.00000,     0,   100.000,   0.00000,   0.00000,   0.00000,   0.00000,0.00000,1,  100.0,   649.000,   162.250,   1,1.0000
   111,'1 ',   100.000,     0.000,   268.800,  -288.500,   1.00000,     0,   100.000,   0.00000,   0.00000,   0.00000,   0.00000,0.00000,1,  100.0,   649.000,   162.250,   1,1.0000
   111,'1 ',   100.000,     0.000,   266.400,  -290.500,   1.00000,     0,   100.000,   0.00000,   0.00000,   0.00000,   0.00000,0.00000,1,  100.0,   649.000,   162.250,   1,1.0000
   111,'1 ',   100.000,     0.000,   271.700,  -271.100,   1.00000,     0,   100.000,   0.00000,   0.00000,   0.00000,   0.00000,0.00000,1,  100.0,   649.000,   162.250,   1,1.0000
   111,'1 ',   100.000,     0.000,   270.800,  -271.900,   1.00000,     0,   100.000,   0.00000,   0.00000,   0.00000,   0.00000,0.00000,1,  100.0,   649.000,   162.250,   1,1.0000
   111,'1 ',   100.000,     0.000,   271.900,  -271.000,   1.00000,     0,   100.000,   0.00000,   0.00000,   0.00000,   0.00000,0.00000,1,  100.0,   649.000,   162.250,   1,1.0000
   110,'1 ',   100.000,     0.000,   315.000,  -286.400,   1.00000,     0,   100.000,   0.00000,   0.00000,   0.00000,   0.00000,0.00000,1,  100.0,   541.000,   135.250,   1,1.0000
   110,'1 ',   100.000,     0.000,   308.600,  -297.800,   1.00000,     0,   100.000,   0.00000,   0.00000,   0.00000,   0.00000,0.00000,1,  100.0,   541.000,   135.250,   1,1.0000
    38,'1 ',   100.000,     0.000,   209.100,  -144.600,   1.00000,     0,   100.000,   0.00000,   0.00000,   0.00000,   0.00000,0.00000,1,  100.0,   483.000,   120.750,   1,1.0000
    38,'1 ',   100.000,     0.000,   217.100,  -150.600,   1.00000,     0,   100.000,   0.00000,   0.00000,   0.00000,   0.00000,0.00000,1,  100.0,   483.000,   120.750,   1,1.0000
    38,'1 ',   100.000,     0.000,   164.700,  -144.100,   1.00000,     0,   100.000,   0.00000,   0.00000,   0.00000,   0.00000,0.00000,1,  100.0,   483.000,   120.750,   1,1.0000
    38,'1 ',   100.000,     0.000,   184.300,  -148.200,   1.00000,     0,   100.000,   0.00000,   0.00000,   0.00000,   0.00000,0.00000,1,  100.0,   483.000,   120.750,   1,1.0000
    74,'1 ',   100.000,     0.000,   199.000,  -156.700,   1.00000,     0,   100.000,   0.00000,   0.00000,   0.00000,   0.00000,0.00000,1,  100.0,   500.000,   125.000,   1,1.0000
    74,'1 ',   100.000,     0.000,   201.300,  -154.300,   1.00000,     0,   100.000,   0.00000,   0.00000,   0.00000,   0.00000,0.00000,1,  100.0,   500.000,   125.000,   1,1.0000
    74,'1 ',   100.000,     0.000,     6.800,    -6.800,   1.00000,     0,   100.000,   0.00000,   0.00000,   0.00000,   0.00000,0.00000,1,  100.0,    17.000,     4.250,   1,1.0000
    74,'1 ',   100.000,     0.000,     9.200,    -9.200,   1.00000,     0,   100.000,   0.00000,   0.00000,   0.00000,   0.00000,0.00000,1,  100.0,    23.000,     5.750,   1,1.0000
    74,'1 ',   100.000,     0.000,     6.800,    -6.800,   1.00000,     0,   100.000,   0.00000,   0.00000,   0.00000,   0.00000,0.00000,1,  100.0,    17.000,     4.250,   1,1.0000
    74,'1 ',   100.000,     0.000,     3.200,    -3.200,   1.00000,     0,   100.000,   0.00000,   0.00000,   0.00000,   0.00000,0.00000,1,  100.0,     8.000,     2.000,   1,1.0000
   103,'1 ',   100.000,     0.000,   242.400,  -237.100,   1.00000,     0,   100.000,   0.00000,   0.00000,   0.00000,   0.00000,0.00000,1,  100.0,   650.000,   162.500,   1,1.0000
   103,'1 ',   100.000,     0.000,   242.400,  -237.100,   1.00000,     0,   100.000,   0.00000,   0.00000,   0.00000,   0.00000,0.00000,1,  100.0,     0.000,     0.000,   1,1.0000
   103,'1 ',   100.000,     0.000,     0.000,     0.000,   1.00000,     0,   100.000,   0.00000,   0.00000,   0.00000,   0.00000,0.00000,1,  100.0,     0.000,     0.000,   1,1.0000
   103,'1 ',   100.000,     0.000,     0.000,     0.000,   1.00000,     0,   100.000,   0.00000,   0.00000,   0.00000,   0.00000,0.00000,1,  100.0,   650.000,   162.500,   1,1.0000
   103,'1 ',   100.000,     0.000,    22.000,   -22.000,   1.00000,     0,   100.000,   0.00000,   0.00000,   0.00000,   0.00000,0.00000,1,  100.0,    55.000,    13.750,   1,1.0000
   103,'1 ',   100.000,     0.000,     0.000,    -0.000,   1.00000,     0,   100.000,   0.00000,   0.00000,   0.00000,   0.00000,0.00000,1,  100.0,     0.000,     0.000,   1,1.0000
   103,'1 ',   100.000,     0.000,     0.000,    -0.000,   1.00000,     0,   100.000,   0.00000,   0.00000,   0.00000,   0.00000,0.00000,1,  100.0,     0.000,     0.000,   1,1.0000
   103,'1 ',   100.000,     0.000,     0.000,    -0.000,   1.00000,     0,   100.000,   0.00000,   0.00000,   0.00000,   0.00000,0.00000,1,  100.0,     0.000,     0.000,   1,1.0000
   103,'1 ',   100.000,     0.000,     0.000,    -0.000,   1.00000,     0,   100.000,   0.00000,   0.00000,   0.00000,   0.00000,0.00000,1,  100.0,     0.000,     0.000,   1,1.0000
   119,'1 ',   100.000,     0.000,   286.300,  -289.200,   1.00000,     0,   100.000,   0.00000,   0.00000,   0.00000,   0.00000,0.00000,1,  100.0,   607.000,   151.750,   1,1.0000
   119,'1 ',   100.000,     0.000,   292.600,  -288.700,   1.00000,     0,   100.000,   0.00000,   0.00000,   0.00000,   0.00000,0.00000,1,  100.0,   596.000,   149.000,   1,1.0000
   119,'1 ',   100.000,     0.000,   269.200,  -266.200,   1.00000,     0,   100.000,   0.00000,   0.00000,   0.00000,   0.00000,0.00000,1,  100.0,   601.000,   150.250,   1,1.0000
   119,'1 ',   100.000,     0.000,   265.700,  -264.600,   1.00000,     0,   100.000,   0.00000,   0.00000,   0.00000,   0.00000,0.00000,1,  100.0,   603.000,   150.750,   1,1.0000
    15,'1 ',   100.000,     0.000,   202.800,  -248.600,   1.00000,     0,   100.000,   0.00000,   0.00000,   0.00000,   0.00000,0.00000,1,  100.0,   644.000,   161.000,   1,1.0000
    15,'1 ',   100.000,     0.000,   193.500,  -290.800,   1.00000,     0,   100.000,   0.00000,   0.00000,   0.00000,   0.00000,0.00000,1,  100.0,   617.000,   154.250,   1,1.0000
    17,'1 ',   100.000,     0.000,   118.500,  -122.400,   1.00000,     0,   100.000,   0.00000,   0.00000,   0.00000,   0.00000,0.00000,1,  100.0,   244.000,    61.000,   1,1.0000
    17,'1 ',   100.000,     0.000,   118.500,  -122.400,   1.00000,     0,   100.000,   0.00000,   0.00000,   0.00000,   0.00000,0.00000,1,  100.0,   262.000,    65.500,   1,1.0000
    17,'1 ',   100.000,     0.000,    54.600,   -53.500,   1.00000,     0,   100.000,   0.00000,   0.00000,   0.00000,   0.00000,0.00000,1,  100.0,   117.000,    29.250,   1,1.0000
    17,'1 ',   100.000,     0.000,    54.600,   -53.500,   1.00000,     0,   100.000,   0.00000,   0.00000,   0.00000,   0.00000,0.00000,1,  100.0,   117.000,    29.250,   1,1.0000
    17,'1 ',   100.000,     0.000,   148.100,  -114.000,   1.00000,     0,   100.000,   0.00000,   0.00000,   0.00000,   0.00000,0.00000,1,  100.0,   227.000,    56.750,   1,1.0000
    17,'1 ',   100.000,     0.000,   148.100,  -114.000,   1.00000,     0,   100.000,   0.00000,   0.00000,   0.00000,   0.00000,0.00000,1,  100.0,   227.000,    56.750,   1,1.0000
    17,'1 ',   100.000,     0.000,    55.600,   -52.500,   1.00000,     0,   100.000,   0.00000,   0.00000,   0.00000,   0.00000,0.00000,1,  100.0,   106.000,    26.500,   1,1.0000
   158,'1 ',   100.000,     0.000,   115.900,   -54.900,   1.00000,     0,   100.000,   0.00000,   0.00000,   0.00000,   0.00000,0.00000,1,  100.0,   140.000,    35.000,   1,1.0000
    21,'1 ',   100.000,     0.000,   208.500,  -165.200,   1.00000,     0,   100.000,   0.00000,   0.00000,   0.00000,   0.00000,0.00000,1,  100.0,   482.000,   120.500,   1,1.0000
    21,'1 ',   100.000,     0.000,   206.300,  -159.500,   1.00000,     0,   100.000,   0.00000,   0.00000,   0.00000,   0.00000,0.00000,1,  100.0,   482.000,   120.500,   1,1.0000
    65,'1 ',   100.000,     0.000,    96.500,  -109.500,   1.00000,     0,   100.000,   0.00000,   0.00000,   0.00000,   0.00000,0.00000,1,  100.0,   245.000,    61.250,   1,1.0000
    65,'1 ',   100.000,     0.000,   110.900,  -106.200,   1.00000,     0,   100.000,   0.00000,   0.00000,   0.00000,   0.00000,0.00000,1,  100.0,   245.000,    61.250,   1,1.0000
    65,'1 ',   100.000,     0.000,   103.300,  -113.700,   1.00000,     0,   100.000,   0.00000,   0.00000,   0.00000,   0.00000,0.00000,1,  100.0,   245.000,    61.250,   1,1.0000
    46,'1 ',   100.000,     0.000,    66.900,   -69.700,   1.00000,     0,   100.000,   0.00000,   0.00000,   0.00000,   0.00000,0.00000,1,  100.0,     0.000,     0.000,   1,1.0000
    46,'1 ',   100.000,     0.000,    68.700,   -68.100,   1.00000,     0,   100.000,   0.00000,   0.00000,   0.00000,   0.00000,0.00000,1,  100.0,     0.000,     0.000,   1,1.0000
    46,'1 ',   100.000,     0.000,    79.600,   -73.600,   1.00000,     0,   100.000,   0.00000,   0.00000,   0.00000,   0.00000,0.00000,1,  100.0,     0.000,     0.000,   1,1.0000
    46,'1 ',   100.000,     0.000,    67.000,   -69.500,   1.00000,     0,   100.000,   0.00000,   0.00000,   0.00000,   0.00000,0.00000,1,  100.0,     0.000,     0.000,   1,1.0000
    46,'1 ',   100.000,     0.000,    67.000,   -69.500,   1.00000,     0,   100.000,   0.00000,   0.00000,   0.00000,   0.00000,0.00000,1,  100.0,     0.000,     0.000,   1,1.0000
    46,'1 ',   100.000,     0.000,    79.600,   -73.600,   1.00000,     0,   100.000,   0.00000,   0.00000,   0.00000,   0.00000,0.00000,1,  100.0,     0.000,     0.000,   1,1.0000
    46,'1 ',   100.000,     0.000,    57.300,   -69.000,   1.00000,     0,   100.000,   0.00000,   0.00000,   0.00000,   0.00000,0.00000,1,  100.0,   144.600,    36.150,   1,1.0000
    46,'1 ',   100.000,     0.000,    57.300,   -69.000,   1.00000,     0,   100.000,   0.00000,   0.00000,   0.00000,   0.00000,0.00000,1,  100.0,   144.600,    36.150,   1,1.0000
    46,'1 ',   100.000,     0.000,    57.300,   -69.000,   1.00000,     0,   100.000,   0.00000,   0.00000,   0.00000,   0.00000,0.00000,1,  100.0,   144.600,    36.150,   1,1.0000
    46,'1 ',   100.000,     0.000,   104.700,  -106.700,   1.00000,     0,   100.000,   0.00000,   0.00000,   0.00000,   0.00000,0.00000,1,  100.0,   231.200,    57.800,   1,1.0000
    64,'1 ',   100.000,     0.000,   196.000,  -131.900,   1.00000,     0,   100.000,   0.00000,   0.00000,   0.00000,   0.00000,0.00000,1,  100.0,   485.000,   121.250,   1,1.0000
    64,'1 ',   100.000,     0.000,   196.200,  -131.800,   1.00000,     0,   100.000,   0.00000,   0.00000,   0.00000,   0.00000,0.00000,1,  100.0,   485.000,   121.250,   1,1.0000
    64,'1 ',   100.000,     0.000,   200.700,  -128.400,   1.00000,     0,   100.000,   0.00000,   0.00000,   0.00000,   0.00000,0.00000,1,  100.0,   485.000,   121.250,   1,1.0000
    64,'1 ',   100.000,     0.000,   195.300,  -132.500,   1.00000,     0,   100.000,   0.00000,   0.00000,   0.00000,   0.00000,0.00000,1,  100.0,   485.000,   121.250,   1,1.0000
    64,'1 ',   100.000,     0.000,     5.200,    -5.200,   1.00000,     0,   100.000,   0.00000,   0.00000,   0.00000,   0.00000,0.00000,1,  100.0,    13.000,     3.250,   1,1.0000
    64,'1 ',   100.000,     0.000,     5.200,    -5.200,   1.00000,     0,   100.000,   0.00000,   0.00000,   0.00000,   0.00000,0.00000,1,  100.0,    13.000,     3.250,   1,1.0000
    47,'1 ',   100.000,     0.000,    90.100,  -109.500,   1.00000,     0,   100.000,   0.00000,   0.00000,   0.00000,   0.00000,0.00000,1,  100.0,   210.000,    52.500,   1,1.0000
    47,'1 ',   100.000,     0.000,    90.300,  -109.200,   1.00000,     0,   100.000,   0.00000,   0.00000,   0.00000,   0.00000,0.00000,1,  100.0,   210.000,    52.500,   1,1.0000
    47,'1 ',   100.000,     0.000,   115.700,  -117.400,   1.00000,     0,   100.000,   0.00000,   0.00000,   0.00000,   0.00000,0.00000,1,  100.0,   245.000,    61.250,   1,1.0000
   165,'1 ',   100.000,     0.000,   264.000,  -261.200,   1.00000,     0,   100.000,   0.00000,   0.00000,   0.00000,   0.00000,0.00000,1,  100.0,   685.000,   171.250,   1,1.0000
   165,'1 ',   100.000,     0.000,   264.500,  -260.800,   1.00000,     0,   100.000,   0.00000,   0.00000,   0.00000,   0.00000,0.00000,1,  100.0,   685.000,   171.250,   1,1.0000
   165,'1 ',   100.000,     0.000,     0.000,     0.000,   1.00000,     0,   100.000,   0.00000,   0.00000,   0.00000,   0.00000,0.00000,1,  100.0,     0.000,     0.000,   1,1.0000
   165,'1 ',   100.000,     0.000,    14.000,   -14.000,   1.00000,     0,   100.000,   0.00000,   0.00000,   0.00000,   0.00000,0.00000,1,  100.0,    35.000,     8.750,   1,1.0000
   165,'1 ',   100.000,     0.000,    14.000,   -14.000,   1.00000,     0,   100.000,   0.00000,   0.00000,   0.00000,   0.00000,0.00000,1,  100.0,    35.000,     8.750,   1,1.0000
   165,'1 ',   100.000,     0.000,    14.000,   -14.000,   1.00000,     0,   100.000,   0.00000,   0.00000,   0.00000,   0.00000,0.00000,1,  100.0,    35.000,     8.750,   1,1.0000
    16,'1 ',   100.000,     0.000,   133.800,  -138.200,   1.00000,     0,   100.000,   0.00000,   0.00000,   0.00000,   0.00000,0.00000,1,  100.0,   324.000,    81.000,   1,1.0000
    16,'1 ',   100.000,     0.000,   133.800,  -138.200,   1.00000,     0,   100.000,   0.00000,   0.00000,   0.00000,   0.00000,0.00000,1,  100.0,   324.000,    81.000,   1,1.0000
    16,'1 ',   100.000,     0.000,   114.900,  -134.200,   1.00000,     0,   100.000,   0.00000,   0.00000,   0.00000,   0.00000,0.00000,1,  100.0,   288.000,    72.000,   1,1.0000
    86,'1 ',   100.000,     0.000,   109.100,  -120.100,   1.00000,     0,   100.000,   0.00000,   0.00000,   0.00000,   0.00000,0.00000,1,  100.0,   226.700,    56.675,   1,1.0000
    86,'1 ',   100.000,     0.000,   110.900,  -118.900,   1.00000,     0,   100.000,   0.00000,   0.00000,   0.00000,   0.00000,0.00000,1,  100.0,   226.700,    56.675,   1,1.0000
    86,'1 ',   100.000,     0.000,   121.300,  -112.600,   1.00000,     0,   100.000,   0.00000,   0.00000,   0.00000,   0.00000,0.00000,1,  100.0,   226.700,    56.675,   1,1.0000
    49,'1 ',   100.000,     0.000,   170.000,  -148.100,   1.00000,     0,   100.000,   0.00000,   0.00000,   0.00000,   0.00000,0.00000,1,  100.0,   500.000,   125.000,   1,1.0000
    49,'1 ',   100.000,     0.000,   193.200,  -129.300,   1.00000,     0,   100.000,   0.00000,   0.00000,   0.00000,   0.00000,0.00000,1,  100.0,   500.000,   125.000,   1,1.0000
    49,'1 ',   100.000,     0.000,   193.100,  -129.300,   1.00000,     0,   100.000,   0.00000,   0.00000,   0.00000,   0.00000,0.00000,1,  100.0,   500.000,   125.000,   1,1.0000
    49,'1 ',   100.000,     0.000,   177.600,   -79.500,   1.00000,     0,   100.000,   0.00000,   0.00000,   0.00000,   0.00000,0.00000,1,  100.0,   500.000,   125.000,   1,1.0000
    49,'1 ',   100.000,     0.000,     0.000,    -0.000,   1.00000,     0,   100.000,   0.00000,   0.00000,   0.00000,   0.00000,0.00000,1,  100.0,     0.000,     0.000,   1,1.0000
    49,'1 ',   100.000,     0.000,     4.000,    -4.000,   1.00000,     0,   100.000,   0.00000,   0.00000,   0.00000,   0.00000,0.00000,1,  100.0,    10.000,     2.500,   1,1.0000
    49,'1 ',   100.000,     0.000,     0.000,    -0.000,   1.00000,     0,   100.000,   0.00000,   0.00000,   0.00000,   0.00000,0.00000,1,  100.0,     0.000,     0.000,   1,1.0000
    49,'1 ',   100.000,     0.000,     4.400,    -4.400,   1.00000,     0,   100.000,   0.00000,   0.00000,   0.00000,   0.00000,0.00000,1,  100.0,    11.000,     2.750,   1,1.0000
   144,'1 ',   100.000,     0.000,   176.200,  -156.800,   1.00000,     0,   100.000,   0.00000,   0.00000,   0.00000,   0.00000,0.00000,1,  100.0,   270.000,    67.500,   1,1.0000
...